
     RDKit          3D

 58 62  0  0  0  0  0  0  0  0999 V2000
    4.6740   -4.5380    1.5216 O   0  0  0  0  0  0  0  0  0  0  0  0
    4.5276   -3.3974    0.7391 C   0  0  0  0  0  0  0  0  0  0  0  0
    4.3188   -3.5063   -0.6153 C   0  0  0  0  0  0  0  0  0  0  0  0
    4.1737   -2.3778   -1.3875 C   0  0  0  0  0  0  0  0  0  0  0  0
    4.2325   -1.0956   -0.8288 C   0  0  0  0  0  0  0  0  0  0  0  0
    4.4418   -0.9978    0.5248 C   0  0  0  0  0  0  0  0  0  0  0  0
    4.5838   -2.1182    1.2786 C   0  0  0  0  0  0  0  0  0  0  0  0
    4.5418    0.6113    1.2983 S   0  0  0  0  0  0  0  0  0  0  0  0
    4.5415    1.7672   -0.1496 C   0  0  2  0  0  0  0  0  0  0  0  0
    4.5172    3.1666    0.2257 C   0  0  0  0  0  0  0  0  0  0  0  0
    3.4875    4.0384    0.4926 C   0  0  0  0  0  0  0  0  0  0  0  0
    4.0636    5.2516    0.7992 C   0  0  0  0  0  0  0  0  0  0  0  0
    5.4240    5.0853    0.7106 C   0  0  0  0  0  0  0  0  0  0  0  0
    5.6457    3.8658    0.3767 O   0  0  0  0  0  0  0  0  0  0  0  0
    3.5301    1.2496   -1.0753 C   0  0  2  0  0  0  0  0  0  0  0  0
    2.2227    0.8591   -0.5604 C   0  0  0  0  0  0  0  0  0  0  0  0
    1.4188    0.1366   -1.4613 C   0  0  0  0  0  0  0  0  0  0  0  0
    0.1657   -0.3073   -1.1176 C   0  0  0  0  0  0  0  0  0  0  0  0
   -0.3748   -0.0619    0.1494 C   0  0  0  0  0  0  0  0  0  0  0  0
   -1.6246   -0.4930    0.5210 O   0  0  0  0  0  0  0  0  0  0  0  0
   -2.4126   -1.2117   -0.3747 C   0  0  0  0  0  0  0  0  0  0  0  0
   -3.7566   -1.5936    0.2075 C   0  0  0  0  0  0  0  0  0  0  0  0
   -4.5516   -0.4800    0.5945 N   0  0  0  0  0  0  0  0  0  0  0  0
   -5.0555    0.3447   -0.4473 C   0  0  0  0  0  0  0  0  0  0  0  0
   -6.4131   -0.0769   -0.9555 C   0  0  0  0  0  0  0  0  0  0  0  0
   -7.2217   -0.8666    0.0167 C   0  0  0  0  0  0  0  0  0  0  0  0
   -6.8672   -0.4126    1.4119 C   0  0  0  0  0  0  0  0  0  0  0  0
   -5.4117   -0.7130    1.7031 C   0  0  0  0  0  0  0  0  0  0  0  0
    0.4251    0.6440    1.0133 C   0  0  0  0  0  0  0  0  0  0  0  0
    1.6826    1.0871    0.6629 C   0  0  0  0  0  0  0  0  0  0  0  0
    4.0776    0.0352   -1.6558 O   0  0  0  0  0  0  0  0  0  0  0  0
    4.6260   -5.4454    1.0850 H   0  0  0  0  0  0  0  0  0  0  0  0
    4.2741   -4.4963   -1.0469 H   0  0  0  0  0  0  0  0  0  0  0  0
    4.0090   -2.4595   -2.4566 H   0  0  0  0  0  0  0  0  0  0  0  0
    4.7500   -2.0725    2.3549 H   0  0  0  0  0  0  0  0  0  0  0  0
    5.5605    1.5155   -0.6204 H   0  0  0  0  0  0  0  0  0  0  0  0
    2.4436    3.8252    0.4655 H   0  0  0  0  0  0  0  0  0  0  0  0
    3.5503    6.1882    1.0670 H   0  0  0  0  0  0  0  0  0  0  0  0
    6.1592    5.8803    0.8997 H   0  0  0  0  0  0  0  0  0  0  0  0
    3.4437    1.9408   -1.9402 H   0  0  0  0  0  0  0  0  0  0  0  0
    1.7734   -0.0882   -2.4577 H   0  0  0  0  0  0  0  0  0  0  0  0
   -0.4078   -0.8570   -1.8494 H   0  0  0  0  0  0  0  0  0  0  0  0
   -1.9106   -2.1928   -0.6257 H   0  0  0  0  0  0  0  0  0  0  0  0
   -2.5914   -0.7328   -1.3494 H   0  0  0  0  0  0  0  0  0  0  0  0
   -4.2190   -2.3116   -0.4665 H   0  0  0  0  0  0  0  0  0  0  0  0
   -3.5189   -2.1641    1.1512 H   0  0  0  0  0  0  0  0  0  0  0  0
   -4.3647    0.2602   -1.3228 H   0  0  0  0  0  0  0  0  0  0  0  0
   -5.0276    1.4164   -0.1622 H   0  0  0  0  0  0  0  0  0  0  0  0
   -6.9763    0.8651   -1.1666 H   0  0  0  0  0  0  0  0  0  0  0  0
   -6.3562   -0.6224   -1.9107 H   0  0  0  0  0  0  0  0  0  0  0  0
   -8.3212   -0.6508   -0.1243 H   0  0  0  0  0  0  0  0  0  0  0  0
   -7.1326   -1.9644   -0.1027 H   0  0  0  0  0  0  0  0  0  0  0  0
   -7.5098   -0.9762    2.1171 H   0  0  0  0  0  0  0  0  0  0  0  0
   -7.1118    0.6578    1.4887 H   0  0  0  0  0  0  0  0  0  0  0  0
   -5.3608   -1.7827    1.9916 H   0  0  0  0  0  0  0  0  0  0  0  0
   -5.1174   -0.1196    2.6190 H   0  0  0  0  0  0  0  0  0  0  0  0
    0.0630    0.8600    1.9981 H   0  0  0  0  0  0  0  0  0  0  0  0
    2.2665    1.6324    1.3818 H   0  0  0  0  0  0  0  0  0  0  0  0
  1  2  1  0
  2  3  2  0
  3  4  1  0
  4  5  2  0
  5  6  1  0
  6  7  2  0
  6  8  1  0
  8  9  1  0
  9 10  1  0
 10 11  2  0
 11 12  1  0
 12 13  2  0
 13 14  1  0
  9 15  1  0
 15 16  1  0
 16 17  2  0
 17 18  1  0
 18 19  2  0
 19 20  1  0
 20 21  1  0
 21 22  1  0
 22 23  1  0
 23 24  1  0
 24 25  1  0
 25 26  1  0
 26 27  1  0
 27 28  1  0
 19 29  1  0
 29 30  2  0
 15 31  1  0
  7  2  1  0
 14 10  1  0
 30 16  1  0
 31  5  1  0
 28 23  1  0
  1 32  1  0
  3 33  1  0
  4 34  1  0
  7 35  1  0
  9 36  1  6
 11 37  1  0
 12 38  1  0
 13 39  1  0
 15 40  1  6
 17 41  1  0
 18 42  1  0
 21 43  1  0
 21 44  1  0
 22 45  1  0
 22 46  1  0
 24 47  1  0
 24 48  1  0
 25 49  1  0
 25 50  1  0
 26 51  1  0
 26 52  1  0
 27 53  1  0
 27 54  1  0
 28 55  1  0
 28 56  1  0
 29 57  1  0
 30 58  1  0
M  END
$$$$
